Circuit: * C:\Users\nsa325\Documents\GitHub\vhdl-craziness\Circuits Lab\LTSpice\2.asc

Direct Newton iteration for .op point succeeded.

Date: Wed May 01 00:32:06 2019
Total elapsed time: 0.047 seconds.

tnom = 27
temp = 27
method = modified trap
totiter = 2101
traniter = 2098
tranpoints = 1050
accept = 1049
rejected = 1
matrix size = 9
fillins = 0
solver = Normal
Matrix Compiler1: 170 bytes object code size  0.1/0.1/[0.0]
Matrix Compiler2: 517 bytes object code size  0.1/0.2/[0.0]


