Circuit: * C:\Users\bs3528\Desktop\Draft2.asc


Date: Wed Apr 24 15:47:27 2019
Total elapsed time: 0.012 seconds.

tnom = 27
temp = 27
method = trap
totiter = 0
traniter = 0
tranpoints = 0
accept = 0
rejected = 0
matrix size = 9
fillins = 3
solver = Normal

